
 OpenBabel04301517193D

  3  2  0  0  0  0  0  0  0  0999 V2000
   -0.7529    0.0000    0.2576 N   0  0  0  0  0  0  0  0  0  0  0  0
   -1.0929    0.2808    1.1774 H   0  0  0  0  0  0  0  0  0  0  0  0
   -1.0929   -0.9369    0.0410 H   0  0  0  0  0  0  0  0  0  0  0  0
  1  2  1  0  0  0  0
  1  3  1  0  0  0  0
M  END
