
 OpenBabel05071514253D

  4  3  0  0  0  0  0  0  0  0999 V2000
   -3.7684   -0.5026    2.5416 N   0  0  0  0  0  0  0  0  0  0  0  0
   -4.4544    0.2846    2.5174 H   0  0  0  0  0  0  0  0  0  0  0  0
   -3.1936   -0.4009    3.4076 H   0  0  0  0  0  0  0  0  0  0  0  0
   -3.1321   -0.3993    1.7199 H   0  0  0  0  0  0  0  0  0  0  0  0
  1  2  1  0  0  0  0
  1  3  1  0  0  0  0
  1  4  1  0  0  0  0
M  END
