
 OpenBabel04301517593D

 11 11  0  0  0  0  0  0  0  0999 V2000
   -0.7600    1.1691   -0.0005 C   0  0  0  0  0  0  0  0  0  0  0  0
    0.6329    1.2447   -0.0012 C   0  0  0  0  0  0  0  0  0  0  0  0
    1.3947    0.0765    0.0004 C   0  0  0  0  0  0  0  0  0  0  0  0
    0.7641   -1.1677    0.0027 C   0  0  0  0  0  0  0  0  0  0  0  0
   -0.6288   -1.2432    0.0001 C   0  0  0  0  0  0  0  0  0  0  0  0
   -1.3907   -0.0751   -0.0015 C   0  0  0  0  0  0  0  0  0  0  0  0
   -1.3536    2.0792    0.0005 H   0  0  0  0  0  0  0  0  0  0  0  0
    1.1243    2.2140   -0.0028 H   0  0  0  0  0  0  0  0  0  0  0  0
    2.4799    0.1355   -0.0000 H   0  0  0  0  0  0  0  0  0  0  0  0
    1.3576   -2.0778    0.0063 H   0  0  0  0  0  0  0  0  0  0  0  0
   -2.4759   -0.1340   -0.0035 H   0  0  0  0  0  0  0  0  0  0  0  0
  1  2  2  0  0  0  0
  1  6  1  0  0  0  0
  1  7  1  0  0  0  0
  2  3  1  0  0  0  0
  2  8  1  0  0  0  0
  3  4  2  0  0  0  0
  3  9  1  0  0  0  0
  4  5  1  0  0  0  0
  4 10  1  0  0  0  0
  5  6  2  0  0  0  0
  6 11  1  0  0  0  0
M  END
