
 OpenBabel05111512293D

 20 21  0  0  0  0  0  0  0  0999 V2000
    1.8429    7.6058   16.7225 N   0  0  0  0  0  0  0  0  0  0  0  0
   -0.5413    8.1784   17.7797 N   0  0  0  0  0  0  0  0  0  0  0  0
    3.0109    7.3338   16.1169 C   0  0  0  0  0  0  0  0  0  0  0  0
    3.1248    7.7174   15.1079 H   0  0  0  0  0  0  0  0  0  0  0  0
    4.0292    6.6066   16.7266 C   0  0  0  0  0  0  0  0  0  0  0  0
    4.9543    6.4103   16.1957 H   0  0  0  0  0  0  0  0  0  0  0  0
    3.8195    6.1424   18.0240 C   0  0  0  0  0  0  0  0  0  0  0  0
    4.5848    5.5700   18.5391 H   0  0  0  0  0  0  0  0  0  0  0  0
    2.6086    6.4178   18.6569 C   0  0  0  0  0  0  0  0  0  0  0  0
    2.4381    6.0535   19.6626 H   0  0  0  0  0  0  0  0  0  0  0  0
   -0.0574    7.1298   19.8812 C   0  0  0  0  0  0  0  0  0  0  0  0
    0.6239    6.5810   20.5197 H   0  0  0  0  0  0  0  0  0  0  0  0
   -1.3180    7.4797   20.3618 C   0  0  0  0  0  0  0  0  0  0  0  0
   -1.6143    7.2011   21.3683 H   0  0  0  0  0  0  0  0  0  0  0  0
   -2.1865    8.1872   19.5332 C   0  0  0  0  0  0  0  0  0  0  0  0
   -3.1777    8.4779   19.8641 H   0  0  0  0  0  0  0  0  0  0  0  0
   -1.7519    8.5145   18.2514 C   0  0  0  0  0  0  0  0  0  0  0  0
   -2.3928    9.0639   17.5690 H   0  0  0  0  0  0  0  0  0  0  0  0
    1.6290    7.1549   17.9832 C   0  0  0  0  0  0  0  0  0  0  0  0
    0.3085    7.4921   18.5799 C   0  0  0  0  0  0  0  0  0  0  0  0
  1 19  1  0  0  0  0
  2 17  2  0  0  0  0
  2 20  1  0  0  0  0
  3  1  2  0  0  0  0
  3  5  1  0  0  0  0
  4  3  1  0  0  0  0
  5  7  2  0  0  0  0
  6  5  1  0  0  0  0
  7  8  1  0  0  0  0
  7  9  1  0  0  0  0
  9 10  1  0  0  0  0
 11 13  1  0  0  0  0
 11 12  1  0  0  0  0
 13 14  1  0  0  0  0
 15 16  1  0  0  0  0
 15 13  2  0  0  0  0
 17 15  1  0  0  0  0
 18 17  1  0  0  0  0
 19 20  1  0  0  0  0
 19  9  2  0  0  0  0
 20 11  2  0  0  0  0
M  END
