
 OpenBabel04291516563D

  4  3  0  0  0  0  0  0  0  0999 V2000
   -1.2640    2.8040    0.0620 C   0  0  0  0  0  0  0  0  0  0  0  0
   -0.8810    3.7960   -0.2530 H   0  0  0  0  0  0  0  0  0  0  0  0
   -1.0010    2.0450   -0.7030 H   0  0  0  0  0  0  0  0  0  0  0  0
   -2.3670    2.8510    0.1720 H   0  0  0  0  0  0  0  0  0  0  0  0
  1  2  1  0  0  0  0
  1  3  1  0  0  0  0
  1  4  1  0  0  0  0
M  END
