
 OpenBabel04301517493D

 34 36  0  0  0  0  0  0  0  0999 V2000
    0.2699    0.0251   -0.1454 C   0  0  0  0  0  0  0  0  0  0  0  0
   -0.1350    0.7811   -1.2562 C   0  0  0  0  0  0  0  0  0  0  0  0
    0.4801    2.4931   -1.4172 P   0  0  0  0  0  0  0  0  0  0  0  0
    1.3006    2.3671   -3.0455 C   0  0  0  0  0  0  0  0  0  0  0  0
    2.6538    1.9795   -3.0556 C   0  0  0  0  0  0  0  0  0  0  0  0
    3.3579    1.8310   -4.2536 C   0  0  0  0  0  0  0  0  0  0  0  0
    2.7220    2.0708   -5.4670 C   0  0  0  0  0  0  0  0  0  0  0  0
    1.3828    2.4518   -5.4804 C   0  0  0  0  0  0  0  0  0  0  0  0
    0.6766    2.5927   -4.2801 C   0  0  0  0  0  0  0  0  0  0  0  0
   -1.0311    3.4853   -1.6617 C   0  0  0  0  0  0  0  0  0  0  0  0
   -0.9797    4.7233   -2.3249 C   0  0  0  0  0  0  0  0  0  0  0  0
   -2.1250    5.5109   -2.4809 C   0  0  0  0  0  0  0  0  0  0  0  0
   -3.3414    5.0893   -1.9528 C   0  0  0  0  0  0  0  0  0  0  0  0
   -3.4087    3.8886   -1.2553 C   0  0  0  0  0  0  0  0  0  0  0  0
   -2.2624    3.1031   -1.1011 C   0  0  0  0  0  0  0  0  0  0  0  0
   -0.9979    0.1844   -2.1884 C   0  0  0  0  0  0  0  0  0  0  0  0
   -1.4546   -1.1237   -2.0070 C   0  0  0  0  0  0  0  0  0  0  0  0
   -1.0463   -1.8573   -0.8963 C   0  0  0  0  0  0  0  0  0  0  0  0
   -0.1813   -1.2846    0.0330 C   0  0  0  0  0  0  0  0  0  0  0  0
    0.9444    0.4510    0.5958 H   0  0  0  0  0  0  0  0  0  0  0  0
    3.1751    1.7759   -2.1217 H   0  0  0  0  0  0  0  0  0  0  0  0
    4.3997    1.5220   -4.2349 H   0  0  0  0  0  0  0  0  0  0  0  0
    3.2665    1.9540   -6.4001 H   0  0  0  0  0  0  0  0  0  0  0  0
    0.8807    2.6325   -6.4274 H   0  0  0  0  0  0  0  0  0  0  0  0
   -0.3731    2.8681   -4.3351 H   0  0  0  0  0  0  0  0  0  0  0  0
   -0.0386    5.0929   -2.7292 H   0  0  0  0  0  0  0  0  0  0  0  0
   -2.0620    6.4592   -3.0083 H   0  0  0  0  0  0  0  0  0  0  0  0
   -4.2311    5.7020   -2.0696 H   0  0  0  0  0  0  0  0  0  0  0  0
   -4.3496    3.5615   -0.8192 H   0  0  0  0  0  0  0  0  0  0  0  0
   -2.3516    2.1860   -0.5223 H   0  0  0  0  0  0  0  0  0  0  0  0
   -1.3361    0.7353   -3.0622 H   0  0  0  0  0  0  0  0  0  0  0  0
   -2.1293   -1.5664   -2.7346 H   0  0  0  0  0  0  0  0  0  0  0  0
   -1.4005   -2.8748   -0.7559 H   0  0  0  0  0  0  0  0  0  0  0  0
    0.1425   -1.8563    0.8994 H   0  0  0  0  0  0  0  0  0  0  0  0
  1  2  2  0  0  0  0
  1 19  1  0  0  0  0
  1 20  1  0  0  0  0
  2  3  1  0  0  0  0
  2 16  1  0  0  0  0
  3  4  1  0  0  0  0
  3 10  1  0  0  0  0
  4  5  2  0  0  0  0
  4  9  1  0  0  0  0
  5  6  1  0  0  0  0
  5 21  1  0  0  0  0
  6  7  2  0  0  0  0
  6 22  1  0  0  0  0
  7  8  1  0  0  0  0
  7 23  1  0  0  0  0
  8  9  2  0  0  0  0
  8 24  1  0  0  0  0
  9 25  1  0  0  0  0
 10 11  2  0  0  0  0
 10 15  1  0  0  0  0
 11 12  1  0  0  0  0
 11 26  1  0  0  0  0
 12 13  2  0  0  0  0
 12 27  1  0  0  0  0
 13 14  1  0  0  0  0
 13 28  1  0  0  0  0
 14 15  2  0  0  0  0
 14 29  1  0  0  0  0
 15 30  1  0  0  0  0
 16 17  2  0  0  0  0
 16 31  1  0  0  0  0
 17 18  1  0  0  0  0
 17 32  1  0  0  0  0
 18 19  2  0  0  0  0
 18 33  1  0  0  0  0
 19 34  1  0  0  0  0
M  END
