
 OpenBabel05111512313D

 29 31  0  0  0  0  0  0  0  0999 V2000
    0.7730    2.0097    6.7303 N   0  0  0  0  0  0  0  0  0  0  0  0
   -1.5321    0.9015    6.0627 N   0  0  0  0  0  0  0  0  0  0  0  0
   -1.1107   -0.8396    4.1147 N   0  0  0  0  0  0  0  0  0  0  0  0
    1.9836    2.4902    7.0454 C   0  0  0  0  0  0  0  0  0  0  0  0
    2.1941    3.4000    8.0803 C   0  0  0  0  0  0  0  0  0  0  0  0
    1.0928    3.8301    8.8165 C   0  0  0  0  0  0  0  0  0  0  0  0
   -0.1719    3.3430    8.4884 C   0  0  0  0  0  0  0  0  0  0  0  0
   -0.3023    2.4322    7.4358 C   0  0  0  0  0  0  0  0  0  0  0  0
   -0.8112   -1.7120    3.1427 C   0  0  0  0  0  0  0  0  0  0  0  0
   -1.7670   -2.5240    2.5362 C   0  0  0  0  0  0  0  0  0  0  0  0
   -3.0864   -2.4278    2.9722 C   0  0  0  0  0  0  0  0  0  0  0  0
   -3.4037   -1.5227    3.9846 C   0  0  0  0  0  0  0  0  0  0  0  0
   -2.3927   -0.7324    4.5352 C   0  0  0  0  0  0  0  0  0  0  0  0
   -1.6052    1.8447    7.0235 C   0  0  0  0  0  0  0  0  0  0  0  0
   -2.8430    2.2102    7.5651 C   0  0  0  0  0  0  0  0  0  0  0  0
   -3.9924    1.5753    7.0986 C   0  0  0  0  0  0  0  0  0  0  0  0
   -3.8970    0.5955    6.1114 C   0  0  0  0  0  0  0  0  0  0  0  0
   -2.6353    0.2765    5.6027 C   0  0  0  0  0  0  0  0  0  0  0  0
    2.8149    2.1260    6.4486 H   0  0  0  0  0  0  0  0  0  0  0  0
    3.1957    3.7520    8.3029 H   0  0  0  0  0  0  0  0  0  0  0  0
    1.2106    4.5334    9.6347 H   0  0  0  0  0  0  0  0  0  0  0  0
   -1.0358    3.6643    9.0578 H   0  0  0  0  0  0  0  0  0  0  0  0
    0.2320   -1.7588    2.8432 H   0  0  0  0  0  0  0  0  0  0  0  0
   -1.4802   -3.2095    1.7460 H   0  0  0  0  0  0  0  0  0  0  0  0
   -3.8629   -3.0459    2.5336 H   0  0  0  0  0  0  0  0  0  0  0  0
   -4.4259   -1.4395    4.3331 H   0  0  0  0  0  0  0  0  0  0  0  0
   -2.9203    2.9765    8.3263 H   0  0  0  0  0  0  0  0  0  0  0  0
   -4.9635    1.8469    7.5000 H   0  0  0  0  0  0  0  0  0  0  0  0
   -4.7916    0.1061    5.7465 H   0  0  0  0  0  0  0  0  0  0  0  0
  1  4  2  0  0  0  0
  1  8  1  0  0  0  0
  2 14  1  0  0  0  0
  3 13  1  0  0  0  0
  4  5  1  0  0  0  0
  5 20  1  0  0  0  0
  5  6  2  0  0  0  0
  6 21  1  0  0  0  0
  7  6  1  0  0  0  0
  7 22  1  0  0  0  0
  8  7  2  0  0  0  0
  9  3  2  0  0  0  0
 10 11  2  0  0  0  0
 10  9  1  0  0  0  0
 11 12  1  0  0  0  0
 12 26  1  0  0  0  0
 12 13  2  0  0  0  0
 13 18  1  0  0  0  0
 14  8  1  0  0  0  0
 14 15  2  0  0  0  0
 15 27  1  0  0  0  0
 16 28  1  0  0  0  0
 16 15  1  0  0  0  0
 17 16  2  0  0  0  0
 18  2  2  0  0  0  0
 18 17  1  0  0  0  0
 19  4  1  0  0  0  0
 23  9  1  0  0  0  0
 24 10  1  0  0  0  0
 25 11  1  0  0  0  0
 29 17  1  0  0  0  0
M  END
