
 OpenBabel04301518563D

  3  2  0  0  0  0  0  0  0  0999 V2000
    1.0353    0.0206    0.0297 C   0  5  0  0  0  0  0  0  0  0  0  0
    2.2922    0.0206    0.0235 N   0  0  0  0  0  0  0  0  0  0  0  0
   -0.3742    0.0206    0.0373 S   0  0  0  0  0  0  0  0  0  0  0  0
  1  2  1  0  0  0  0
  1  3  2  0  0  0  0
M  CHG  1   1  -1
M  END
