
 OpenBabel05231519073D

 76 84  0  0  0  0  0  0  0  0999 V2000
   -2.0640    0.1237   -0.0006 N   0  0  0  0  0  0  0  0  0  0  0  0
    0.1256    2.0640    0.0023 N   0  0  0  0  0  0  0  0  0  0  0  0
   -0.1255   -2.0639    0.0004 N   0  0  0  0  0  0  0  0  0  0  0  0
    2.0641   -0.1236   -0.0024 N   0  0  0  0  0  0  0  0  0  0  0  0
   -2.9603   -0.9458   -0.0000 C   0  0  0  0  0  0  0  0  0  0  0  0
   -4.3226   -0.4276    0.0130 C   0  0  0  0  0  0  0  0  0  0  0  0
   -4.2391    0.9448    0.0116 C   0  0  0  0  0  0  0  0  0  0  0  0
   -2.8241    1.2940    0.0088 C   0  0  0  0  0  0  0  0  0  0  0  0
   -5.2166   -1.0333    0.0254 H   0  0  0  0  0  0  0  0  0  0  0  0
   -5.0530    1.6546    0.0105 H   0  0  0  0  0  0  0  0  0  0  0  0
   -2.3182    2.6162    0.0013 C   0  0  0  0  0  0  0  0  0  0  0  0
   -2.6180   -2.3198    0.0001 C   0  0  0  0  0  0  0  0  0  0  0  0
   -0.4282    4.3219   -0.0152 C   0  0  0  0  0  0  0  0  0  0  0  0
    0.9442    4.2399   -0.0157 C   0  0  0  0  0  0  0  0  0  0  0  0
    1.2952    2.8252    0.0001 C   0  0  0  0  0  0  0  0  0  0  0  0
   -0.9448    2.9592   -0.0071 C   0  0  0  0  0  0  0  0  0  0  0  0
   -1.0351    5.2153   -0.0169 H   0  0  0  0  0  0  0  0  0  0  0  0
    1.6527    5.0547   -0.0310 H   0  0  0  0  0  0  0  0  0  0  0  0
    2.6182    2.3199    0.0002 C   0  0  0  0  0  0  0  0  0  0  0  0
    0.9448   -2.9593   -0.0075 C   0  0  0  0  0  0  0  0  0  0  0  0
    0.4281   -4.3220   -0.0117 C   0  0  0  0  0  0  0  0  0  0  0  0
   -0.9443   -4.2398   -0.0143 C   0  0  0  0  0  0  0  0  0  0  0  0
   -1.2952   -2.8250    0.0003 C   0  0  0  0  0  0  0  0  0  0  0  0
    1.0349   -5.2154   -0.0108 H   0  0  0  0  0  0  0  0  0  0  0  0
   -1.6531   -5.0545   -0.0281 H   0  0  0  0  0  0  0  0  0  0  0  0
    4.3227    0.4274    0.0145 C   0  0  0  0  0  0  0  0  0  0  0  0
    4.2390   -0.9449    0.0150 C   0  0  0  0  0  0  0  0  0  0  0  0
    2.8241   -1.2940    0.0085 C   0  0  0  0  0  0  0  0  0  0  0  0
    2.9604    0.9459    0.0003 C   0  0  0  0  0  0  0  0  0  0  0  0
    5.2168    1.0329    0.0283 H   0  0  0  0  0  0  0  0  0  0  0  0
    5.0530   -1.6547    0.0162 H   0  0  0  0  0  0  0  0  0  0  0  0
    2.3182   -2.6162    0.0008 C   0  0  0  0  0  0  0  0  0  0  0  0
   -3.3158    3.7425    0.0009 C   0  0  0  0  0  0  0  0  0  0  0  0
   -3.5059    4.5369   -1.1523 C   0  0  0  0  0  0  0  0  0  0  0  0
   -4.4406    5.5893   -1.1544 C   0  0  0  0  0  0  0  0  0  0  0  0
   -5.1964    5.8677    0.0010 C   0  0  0  0  0  0  0  0  0  0  0  0
   -5.0118    5.0837    1.1565 C   0  0  0  0  0  0  0  0  0  0  0  0
   -4.0808    4.0281    1.1543 C   0  0  0  0  0  0  0  0  0  0  0  0
   -2.9277    4.3220   -2.0477 H   0  0  0  0  0  0  0  0  0  0  0  0
   -4.5783    6.1864   -2.0530 H   0  0  0  0  0  0  0  0  0  0  0  0
   -5.9171    6.6821    0.0011 H   0  0  0  0  0  0  0  0  0  0  0  0
   -5.5874    5.2931    2.0552 H   0  0  0  0  0  0  0  0  0  0  0  0
   -3.9371    3.4284    2.0499 H   0  0  0  0  0  0  0  0  0  0  0  0
   -3.7441   -3.3169   -0.0008 C   0  0  0  0  0  0  0  0  0  0  0  0
   -4.0024   -4.1145    1.1371 C   0  0  0  0  0  0  0  0  0  0  0  0
   -5.0583   -5.0450    1.1387 C   0  0  0  0  0  0  0  0  0  0  0  0
   -5.8701   -5.1972   -0.0021 C   0  0  0  0  0  0  0  0  0  0  0  0
   -5.6192   -4.4091   -1.1422 C   0  0  0  0  0  0  0  0  0  0  0  0
   -4.5669   -3.4746   -1.1391 C   0  0  0  0  0  0  0  0  0  0  0  0
   -3.3816   -3.9958    2.0219 H   0  0  0  0  0  0  0  0  0  0  0  0
   -5.2464   -5.6455    2.0258 H   0  0  0  0  0  0  0  0  0  0  0  0
   -6.2378   -4.5216   -2.0297 H   0  0  0  0  0  0  0  0  0  0  0  0
   -4.3732   -2.8718   -2.0231 H   0  0  0  0  0  0  0  0  0  0  0  0
    3.3158   -3.7426    0.0012 C   0  0  0  0  0  0  0  0  0  0  0  0
    4.0806   -4.0280    1.1547 C   0  0  0  0  0  0  0  0  0  0  0  0
    5.0115   -5.0837    1.1573 C   0  0  0  0  0  0  0  0  0  0  0  0
    5.1960   -5.8681    0.0021 C   0  0  0  0  0  0  0  0  0  0  0  0
    4.4403   -5.5899   -1.1535 C   0  0  0  0  0  0  0  0  0  0  0  0
    3.5058   -4.5374   -1.1517 C   0  0  0  0  0  0  0  0  0  0  0  0
    3.9370   -3.4280    2.0501 H   0  0  0  0  0  0  0  0  0  0  0  0
    5.5870   -5.2930    2.0561 H   0  0  0  0  0  0  0  0  0  0  0  0
    5.9166   -6.6826    0.0024 H   0  0  0  0  0  0  0  0  0  0  0  0
    4.5780   -6.1874   -2.0518 H   0  0  0  0  0  0  0  0  0  0  0  0
    2.9276   -4.3226   -2.0472 H   0  0  0  0  0  0  0  0  0  0  0  0
    3.7441    3.3170   -0.0007 C   0  0  0  0  0  0  0  0  0  0  0  0
    3.9953    4.1230    1.1329 C   0  0  0  0  0  0  0  0  0  0  0  0
    5.0511    5.0536    1.1345 C   0  0  0  0  0  0  0  0  0  0  0  0
    5.8702    5.1975   -0.0023 C   0  0  0  0  0  0  0  0  0  0  0  0
    5.6266    4.4011   -1.1381 C   0  0  0  0  0  0  0  0  0  0  0  0
    4.5743    3.4666   -1.1349 C   0  0  0  0  0  0  0  0  0  0  0  0
    3.3691    4.0107    2.0147 H   0  0  0  0  0  0  0  0  0  0  0  0
    5.2335    5.6604    2.0184 H   0  0  0  0  0  0  0  0  0  0  0  0
    6.2507    4.5072   -2.0225 H   0  0  0  0  0  0  0  0  0  0  0  0
    4.3861    2.8575   -2.0158 H   0  0  0  0  0  0  0  0  0  0  0  0
    6.6848    5.9180   -0.0029 H   0  0  0  0  0  0  0  0  0  0  0  0
   -6.6847   -5.9177   -0.0027 H   0  0  0  0  0  0  0  0  0  0  0  0
  1  5  1  0  0  0  0
  1  8  2  0  0  0  0
  4 29  2  0  0  0  0
  4 28  1  0  0  0  0
  5 12  2  0  0  0  0
  5  6  1  0  0  0  0
  6  9  1  0  0  0  0
  7  6  2  0  0  0  0
  8  7  1  0  0  0  0
 10  7  1  0  0  0  0
 11  8  1  0  0  0  0
 12 23  1  0  0  0  0
 13 16  1  0  0  0  0
 14 13  2  0  0  0  0
 14 15  1  0  0  0  0
 15 19  2  0  0  0  0
 15  2  1  0  0  0  0
 16 11  2  0  0  0  0
 16  2  1  0  0  0  0
 17 13  1  0  0  0  0
 18 14  1  0  0  0  0
 19 29  1  0  0  0  0
 20  3  1  0  0  0  0
 20 32  1  0  0  0  0
 21 24  1  0  0  0  0
 21 20  2  0  0  0  0
 22 21  1  0  0  0  0
 22 23  2  0  0  0  0
 23  3  1  0  0  0  0
 25 22  1  0  0  0  0
 26 27  2  0  0  0  0
 26 30  1  0  0  0  0
 27 31  1  0  0  0  0
 28 27  1  0  0  0  0
 29 26  1  0  0  0  0
 32 54  1  0  0  0  0
 32 28  2  0  0  0  0
 33 11  1  0  0  0  0
 33 38  2  0  0  0  0
 34 33  1  0  0  0  0
 35 34  2  0  0  0  0
 35 36  1  0  0  0  0
 36 41  1  0  0  0  0
 36 37  2  0  0  0  0
 37 42  1  0  0  0  0
 38 37  1  0  0  0  0
 38 43  1  0  0  0  0
 39 34  1  0  0  0  0
 40 35  1  0  0  0  0
 44 12  1  0  0  0  0
 44 45  2  0  0  0  0
 45 46  1  0  0  0  0
 45 50  1  0  0  0  0
 46 51  1  0  0  0  0
 47 46  2  0  0  0  0
 48 49  2  0  0  0  0
 48 47  1  0  0  0  0
 49 44  1  0  0  0  0
 52 48  1  0  0  0  0
 53 49  1  0  0  0  0
 54 55  2  0  0  0  0
 55 56  1  0  0  0  0
 55 60  1  0  0  0  0
 56 61  1  0  0  0  0
 57 62  1  0  0  0  0
 57 56  2  0  0  0  0
 58 59  2  0  0  0  0
 58 57  1  0  0  0  0
 59 54  1  0  0  0  0
 63 58  1  0  0  0  0
 64 59  1  0  0  0  0
 65 19  1  0  0  0  0
 65 66  2  0  0  0  0
 66 67  1  0  0  0  0
 66 71  1  0  0  0  0
 67 72  1  0  0  0  0
 68 67  2  0  0  0  0
 69 70  2  0  0  0  0
 69 68  1  0  0  0  0
 70 65  1  0  0  0  0
 73 69  1  0  0  0  0
 74 70  1  0  0  0  0
 75 68  1  0  0  0  0
 76 47  1  0  0  0  0
M  END
