
 OpenBabel05081517533D

  3  2  0  0  0  0  0  0  0  0999 V2000
   -0.6304    3.4532    1.1538 O   0  0  0  0  0  0  0  0  0  0  0  0
    0.3424    3.4532    1.3389 H   0  0  0  0  0  0  0  0  0  0  0  0
   -1.0533    3.4532    2.0492 H   0  0  0  0  0  0  0  0  0  0  0  0
  1  2  1  0  0  0  0
  1  3  1  0  0  0  0
M  END
